%chk=x6_03_irc3
# IRC(CalcFC,MaxPoints=40,Step=20,Recorrect=Never,phase=(1,3,4)) APFd 6-311+G(2d,p) Int(Ultrafine,Acc2E=12)

cis-trans HCOH TS

0 1
 C                  0.58587563    0.45045695   -0.20801898
 H                  0.73525330    1.07905665    0.71877766
 O                 -0.46458596   -0.33054629    0.08063961
 H                 -0.33785772   -1.19656091    0.47825956

