# b3lyp/6-31g(d)

Title Card Required

0 1
 C                 -0.66535900    0.00000000    0.00000300
 C                  0.66535900    0.00000000   -0.00000400
 H                 -1.24029600   -0.92284700   -0.00001000
 H                 -1.24029500    0.92284700    0.00002400
 H                  1.24029842    0.79919995    0.46143204
 H                  1.24029258   -0.79920149   -0.46144345

