# b3lyp/6-31g(d)

Title Card Required

0 1
 C                 -0.66535900    0.00000000    0.00000300
 C                  0.66535900    0.00000000   -0.00000400
 H                 -1.24029600   -0.92284700   -0.00001000
 H                 -1.24029500    0.92284700    0.00002400
 H                  1.24030040    0.38999570    0.83638399
 H                  1.24029060   -0.38999847   -0.83639676

