%chk=4.chk
# irc=(calcfc,recorrect=never,maxpoints=40,step=20,phase=1,3,4)
apfd/6-311+g(2d,p) int=(ultrafine,acc2e=12)

cis-trans HCOH TS

0 1
 C                  0.58587600    0.45045700   -0.20801900
 H                  0.73525300    1.07905700    0.71877800
 O                 -0.46458600   -0.33054600    0.08064000
 H                 -0.33785800   -1.19656100    0.47826000

