%chk=C:\Users\Administrator\Desktop\benchmark_xxx\HCN-HNC\IRC_22.chk
# irc=(calcfc,maxpoints=200,recalc=10,stepsize=15,lqa) b3lyp/6-311+g(d,p)
geom=connectivity

Title Card Required

0 1
 C                  0.04225713    0.62788977    0.00000000
 H                 -1.09028387    0.25268477    0.00000000
 N                  0.04225713   -0.55625923    0.00000000

 1 3 3.0
 2
 3

