%chk=C:\Users\Administrator\Desktop\benchmark_xxx\HCN-HNC\IRC_9.chk
# irc=(calcfc,maxpoints=200,recalc=10,stepsize=15,lqa) b3lyp/6-311+g(d,p)
geom=connectivity

Title Card Required

0 1
 C                 -0.05408400    0.56857600    0.00000000
 H                 -0.91785300    1.21534300    0.00000000
 N                  0.11240700   -0.57471400    0.00000000

 1 2 1.0 3 3.0
 2
 3

