%chk=C:\Users\Administrator\Desktop\benchmark_xxx\HCN-HNC\IRC_47.chk
# irc=(calcfc,maxpoints=200,recalc=10,stepsize=15,lqa) b3lyp/6-311+g(d,p)
geom=connectivity

Title Card Required

0 1
 C                  0.18408000    0.66197400    0.00000000
 H                 -0.45300100   -1.41602100    0.00000000
 N                 -0.12514500   -0.46536800    0.00000000

 1 3 3.0
 2 3 1.0
 3

